data_RIGIF_R3_UUU_X_publ


# 8. Phase information from GSAS

_pd_phase_name                         "Methane A"
_cell_length_a                         8.7
_cell_length_b                         8.7
_cell_length_c                         8.7
_cell_angle_alpha                      90
_cell_angle_beta                       90
_cell_angle_gamma                      90
_cell_volume                           574(7)
_symmetry_cell_setting                 trigonal
_symmetry_space_group_name_H-M         "R 3"
loop_ _symmetry_equiv_pos_site_id _symmetry_equiv_pos_as_xyz
       1 +x,+y,+z 
       2 +z,+x,+y 
       3 +y,+z,+x 

# ATOMIC COORDINATES AND DISPLACEMENT PARAMETERS


loop_
      _atom_site_type_symbol
      _atom_site_label
      _atom_site_fract_x
      _atom_site_fract_y
      _atom_site_fract_z
      _atom_site_occupancy
      _atom_site_thermal_displace_type
      _atom_site_U_iso_or_equiv
      _atom_site_symmetry_multiplicity
C 
C1      0.57578      0.57577      0.57578      1.0        Uiso   0.042(7)      1
H 
H11     0.513(7)     0.513(7)     0.513(7)     1.0        Uiso   0.065(17)     1
H 
H12     0.528(13)    0.588(21)    0.674(9)     1.0        Uiso   0.065(17)     3
C 
C2      0.954(6)     0.954(6)     0.954(6)     1.0        Uiso   0.056(20)     1
H 
H21     0.891(8)     0.891(8)     0.891(8)     1.0        Uiso   0.065(17)     1
H 
H22     0.915(14)    1.057(7)     0.953(19)    1.0        Uiso   0.065(17)     3
C 
C3      0.187(7)     0.187(7)     0.187(7)     1.0        Uiso   0.076(25)     1
H 
H31     0.124(8)     0.124(8)     0.124(8)     1.0        Uiso   0.065(17)     1
H 
H32     0.251(16)    0.249(17)    0.1230(27)   1.0        Uiso   0.065(17)     3
C 
C4      0.834(5)     0.291(4)     0.701(4)     1.0        Uiso   0.074(14)     3
H 
H41     0.905(12)    0.214(10)    0.735(14)    1.0        Uiso   0.065(17)     3
H 
H42     0.737(9)     0.245(13)    0.680(13)    1.0        Uiso   0.065(17)     3
H 
H43     0.820(12)    0.367(12)    0.779(10)    1.0        Uiso   0.065(17)     3
H 
H44     0.873(13)    0.339(14)    0.610(10)    1.0        Uiso   0.065(17)     3
C 
C5      0.4454(34)   0.318(4)     0.8390(34)   1.0        Uiso   0.006(5)      3
H 
H51     0.530(9)     0.373(13)    0.881(12)    1.0        Uiso   0.065(17)     3
H 
H52     0.419(13)    0.236(10)    0.906(12)    1.0        Uiso   0.065(17)     3
H 
H53     0.359(8)     0.387(10)    0.828(14)    1.0        Uiso   0.065(17)     3
H 
H54     0.473(13)    0.279(13)    0.741(7)     1.0        Uiso   0.065(17)     3
C 
C6      0.720(4)     0.626(4)     0.953(4)     1.0        Uiso   0.024(8)      3
H 
H61     0.724(12)    0.707(11)    1.026(10)    1.0        Uiso   0.065(17)     3
H 
H62     0.707(14)    0.530(8)     1.005(13)    1.0        Uiso   0.065(17)     3
H 
H63     0.636(10)    0.644(13)    0.885(11)    1.0        Uiso   0.065(17)     3
H 
H64     0.814(9)     0.624(13)    0.895(13)    1.0        Uiso   0.065(17)     3
C 
C7      0.519(4)     0.189(4)     0.435(5)     1.0        Uiso   0.047(12)     3
H 
H71     0.448(11)    0.262(11)    0.392(13)    1.0        Uiso   0.065(17)     3
H 
H72     0.486(13)    0.161(13)    0.536(7)     1.0        Uiso   0.065(17)     3
H 
H73     0.524(13)    0.100(9)     0.372(11)    1.0        Uiso   0.065(17)     3
H 
H74     0.619(8)     0.235(12)    0.440(12)    1.0        Uiso   0.065(17)     3
C 
C8      0.939(4)     0.072(4)     0.423(4)     1.0        Uiso   0.033(9)      3
H 
H81     0.983(12)    0.172(8)     0.416(16)    1.0        Uiso   0.065(17)     3
H 
H82     0.951(15)    0.031(14)    0.524(8)     1.0        Uiso   0.065(17)     3
H 
H83     0.832(7)     0.079(12)    0.399(15)    1.0        Uiso   0.065(17)     3
H 
H84     0.989(11)    0.006(13)    0.351(12)    1.0        Uiso   0.065(17)     3
C 
C9      0.205(4)     0.085(4)     0.703(4)     1.0        Uiso   0.039(9)      3
H 
H91     0.253(14)    0.039(13)    0.790(11)    1.0        Uiso   0.065(17)     3
H 
H92     0.171(12)    0.187(9)     0.729(14)    1.0        Uiso   0.065(17)     3
H 
H93     0.276(11)    0.090(14)    0.619(10)    1.0        Uiso   0.065(17)     3
H 
H94     0.118(9)     0.025(12)    0.675(13)    1.0        Uiso   0.065(17)     3
 
# If you change Z, be sure to change all 3 of the following
_chemical_formula_sum                  "C7 H28"
_chemical_formula_weight               112.47
_cell_formula_units_Z                  3

# MOLECULAR GEOMETRY

loop_
      _geom_bond_atom_site_label_1
      _geom_bond_atom_site_label_2
      _geom_bond_distance
      _geom_bond_site_symmetry_1
      _geom_bond_site_symmetry_2
      _geom_bond_publ_flag
  C1        H11               0.93(11)  .      1_555  N
  C1        H12                0.93(4)  .      1_555  N
  C1        H12                0.93(4)  .      2_555  N
  C1        H12                0.93(4)  .      3_555  N
  C1        C4                 3.42(4)  .      1_555  N
  C1        C4                 3.42(4)  .      2_555  N
  C1        C4                 3.42(4)  .      3_555  N
  C1        H42               3.24(12)  .      1_555  N
  C1        H42               3.24(12)  .      2_555  N
  C1        H42               3.24(12)  .      3_555  N
  C1        H43               3.23(11)  .      1_555  N
  C1        H43               3.23(11)  .      2_555  N
  C1        H43               3.23(11)  .      3_555  N
  C1        H44               3.23(12)  .      1_555  N
  C1        H44               3.23(12)  .      2_555  N
  C1        H44               3.23(12)  .      3_555  N
  C1        C5               3.310(29)  .      1_555  N
  C1        C5               3.310(29)  .      2_555  N
  C1        C5               3.310(30)  .      3_555  N
  C1        H51               3.13(12)  .      1_555  N
  C1        H51               3.13(12)  .      2_555  N
  C1        H51               3.13(12)  .      3_555  N
  C1        H53               3.25(10)  .      1_555  N
  C1        H53               3.25(10)  .      2_555  N
  C1        H53               3.25(10)  .      3_555  N
  C1        H54               3.01(12)  .      1_555  N
  C1        H54               3.01(12)  .      2_555  N
  C1        H54               3.01(12)  .      3_555  N
  C1        C6                 3.48(4)  .      1_555  N
  C1        C6                 3.48(4)  .      2_555  N
  C1        C6                 3.48(4)  .      3_555  N
  C1        H63                2.75(9)  .      1_555  N
  C1        H63                2.75(9)  .      2_555  N
  C1        H63                2.75(9)  .      3_555  N
  C1        C7                 3.55(4)  .      1_555  N
  C1        C7                 3.55(4)  .      2_555  N
  C1        C7                 3.55(4)  .      3_555  N
  C1        H74               3.15(11)  .      1_555  N
  C1        H74               3.15(11)  .      2_555  N
  C1        H74               3.15(11)  .      3_555  N
  H11       C1                0.93(11)  .      1_555  N
  H11       H12               1.53(12)  .      1_555  N
  H11       H12               1.53(12)  .      2_555  N
  H11       H12               1.53(12)  .      3_555  N
  H11       C5               3.268(30)  .      1_555  N
  H11       C5               3.267(30)  .      2_555  N
  H11       C5               3.269(31)  .      3_555  N
  H11       C7                 2.84(8)  .      1_555  N
  H11       C7                 2.84(8)  .      2_555  N
  H11       C7                 2.84(8)  .      3_555  N
  H12       C1                 0.93(4)  .      1_555  N
  H12       H11               1.53(12)  .      1_555  N
  H12       H12                1.52(6)  .      2_555  N
  H12       H12                1.52(6)  .      3_555  N
  H12       C4                2.60(12)  .      3_555  N
  H12       C5                2.77(16)  .      1_555  N
  H12       C6                2.91(11)  .      1_555  N
  H12       C6                3.25(14)  .      3_555  N
  C2        H21               0.93(11)  .      1_555  N
  C2        H22                0.93(4)  .      1_555  N
  C2        H22                0.93(4)  .      2_555  N
  C2        H22                0.93(4)  .      3_555  N
  C2        C3                 3.46(4)  .      1_666  N
  C2        H31               2.52(11)  .      1_666  N
  C2        C4                 3.71(4)  .      1_565  N
  C2        C4                 3.71(4)  .      2_556  N
  C2        C4                 3.71(4)  .      3_655  N
  C2        H41                2.91(8)  .      1_565  N
  C2        H41                2.91(8)  .      2_556  N
  C2        H41                2.91(8)  .      3_655  N
  C2        C6                 3.44(6)  .      1_555  N
  C2        C6                 3.44(6)  .      2_555  N
  C2        C6                 3.44(6)  .      3_555  N
  C2        H61               2.94(10)  .      1_555  N
  C2        H61               2.94(10)  .      2_555  N
  C2        H61               2.94(10)  .      3_555  N
  C2        H64               3.11(12)  .      1_555  N
  C2        H64               3.11(12)  .      2_555  N
  C2        H64               3.11(12)  .      3_555  N
  C2        C8                 4.63(4)  .      1_565  N
  C2        C8                 4.12(6)  .      1_566  N
  C2        C8                 4.63(4)  .      2_556  N
  C2        C8                 4.12(6)  .      2_656  N
  C2        C8                 4.63(4)  .      3_655  N
  C2        C8                 4.12(6)  .      3_665  N
  C2        C9                 3.21(4)  .      1_665  N
  C2        C9                 3.21(4)  .      2_566  N
  C2        C9                 3.21(4)  .      3_656  N
  C2        H91               2.99(13)  .      1_665  N
  C2        H91               2.99(13)  .      2_566  N
  C2        H91               2.99(13)  .      3_656  N
  C2        H94               2.81(11)  .      1_665  N
  C2        H94               2.81(11)  .      2_566  N
  C2        H94               2.81(11)  .      3_656  N
  H21       C2                0.93(11)  .      1_555  N
  H21       H22               1.53(11)  .      1_555  N
  H21       H22               1.53(11)  .      2_555  N
  H21       H22               1.53(11)  .      3_555  N
  H21       C6                 2.74(8)  .      1_555  N
  H21       C6                 2.74(8)  .      2_555  N
  H21       C6                 2.74(8)  .      3_555  N
  H22       C2                 0.93(4)  .      1_555  N
  H22       H21               1.53(11)  .      1_555  N
  H22       H22                1.52(6)  .      2_555  N
  H22       H22                1.52(6)  .      3_555  N
  H22       C3                 3.27(7)  .      1_666  N
  H22       C4                3.00(13)  .      1_565  N
  H22       C9                3.25(20)  .      1_665  N
  H22       C9                2.46(14)  .      2_566  N
  C3        C2                 3.46(4)  .      1_444  N
  C3        H22                3.27(7)  .      1_444  N
  C3        H22                3.27(7)  .      2_444  N
  C3        H22                3.27(7)  .      3_444  N
  C3        H31               0.93(11)  .      1_555  N
  C3        H32                0.93(4)  .      1_555  N
  C3        H32                0.93(4)  .      2_555  N
  C3        H32                0.93(4)  .      3_555  N
  C3        C5               3.839(29)  .      1_554  N
  C3        C5               3.839(30)  .      2_455  N
  C3        C5               3.839(29)  .      3_545  N
  C3        H52                3.11(8)  .      1_554  N
  C3        H52                3.11(8)  .      2_455  N
  C3        H52                3.11(8)  .      3_545  N
  C3        C7                 3.55(8)  .      1_555  N
  C3        C7                 3.55(8)  .      2_555  N
  C3        C7                 3.55(8)  .      3_555  N
  C3        H71               2.92(11)  .      1_555  N
  C3        H71               2.92(11)  .      2_555  N
  C3        H71               2.92(11)  .      3_555  N
  C3        C8                 3.06(4)  .      1_455  N
  C3        C8                 3.06(4)  .      2_545  N
  C3        C8                 3.06(4)  .      3_554  N
  C3        H81               2.60(13)  .      1_455  N
  C3        H81               2.60(13)  .      2_545  N
  C3        H81               2.60(13)  .      3_554  N
  C3        H84               2.67(13)  .      1_455  N
  C3        H84               2.67(13)  .      2_545  N
  C3        H84               2.67(13)  .      3_554  N
  C3        C9                 4.21(6)  .      1_554  N
  C3        C9                 4.48(5)  .      1_555  N
  C3        C9                 4.21(6)  .      2_455  N
  C3        C9                 4.48(5)  .      2_555  N
  C3        C9                 4.21(6)  .      3_545  N
  C3        C9                 4.48(5)  .      3_555  N
  H31       C2                2.52(11)  .      1_444  N
  H31       C3                0.93(11)  .      1_555  N
  H31       H32               1.53(11)  .      1_555  N
  H31       H32               1.53(11)  .      2_555  N
  H31       H32               1.53(11)  .      3_555  N
  H31       C8               3.011(33)  .      1_455  N
  H31       C8               3.010(34)  .      2_545  N
  H31       C8               3.011(33)  .      3_554  N
  H32       C3                 0.93(4)  .      1_555  N
  H32       H31               1.53(11)  .      1_555  N
  H32       H32                1.52(6)  .      2_555  N
  H32       H32                1.52(6)  .      3_555  N
  H32       C5                 2.97(6)  .      1_554  N
  H32       C7                 2.85(7)  .      2_555  N
  H32       C8                3.04(19)  .      2_545  N
  H32       C8                2.63(16)  .      3_554  N
  C4        C1                 3.42(4)  .      1_555  N
  C4        H12               2.60(12)  .      2_555  N
  C4        C2                 3.71(4)  .      1_545  N
  C4        H22               3.00(13)  .      1_545  N
  C4        H41                0.93(4)  .      1_555  N
  C4        H42                0.93(4)  .      1_555  N
  C4        H43                0.93(4)  .      1_555  N
  C4        H44                0.93(4)  .      1_555  N
  C4        C5                 3.50(4)  .      1_555  N
  C4        C5                 3.50(4)  .      2_555  N
  C4        H51               3.07(11)  .      1_555  N
  C4        H53                2.73(8)  .      2_555  N
  C4        H54               3.08(11)  .      1_555  N
  C4        C6               3.699(32)  .      1_555  N
  C4        C6                 5.00(5)  .      2_545  N
  C4        C6                 3.84(4)  .      2_555  N
  C4        C6               3.389(35)  .      3_545  N
  C4        H61                2.51(6)  .      3_545  N
  C4        H63                3.01(8)  .      2_555  N
  C4        C7                 3.63(4)  .      1_555  N
  C4        C7                 3.61(4)  .      3_655  N
  C4        H73                2.80(8)  .      3_655  N
  C4        H74                2.93(9)  .      1_555  N
  C4        C8                 3.15(4)  .      1_555  N
  C4        C8                 3.10(4)  .      3_655  N
  C4        H81               2.91(14)  .      1_555  N
  C4        H82               2.85(13)  .      1_555  N
  C4        H83               3.15(11)  .      1_555  N
  C4        H83                2.55(9)  .      3_655  N
  C4        H84               2.91(12)  .      3_655  N
  C4        C9                 3.60(5)  .      1_655  N
  C4        C9                 3.52(4)  .      2_556  N
  C4        H91               2.91(10)  .      2_556  N
  C4        H92               3.01(10)  .      1_655  N
  H41       C2                 2.91(8)  .      1_545  N
  H41       C4                 0.93(4)  .      1_555  N
  H41       H42                1.53(6)  .      1_555  N
  H41       H43                1.53(6)  .      1_555  N
  H41       H44                1.53(6)  .      1_555  N
  H41       C6                3.27(12)  .      3_545  N
  H41       C8                2.94(12)  .      1_555  N
  H41       C8                2.88(12)  .      3_655  N
  H41       C9                 2.78(8)  .      1_655  N
  H42       C1                3.24(12)  .      1_555  N
  H42       C4                 0.93(4)  .      1_555  N
  H42       H41                1.53(6)  .      1_555  N
  H42       H43                1.53(6)  .      1_555  N
  H42       H44                1.53(6)  .      1_555  N
  H42       C5                2.88(10)  .      1_555  N
  H42       C6                2.68(10)  .      3_545  N
  H42       C7                 2.84(8)  .      1_555  N
  H42       C8                3.14(11)  .      1_555  N
  H43       C1                3.23(11)  .      1_555  N
  H43       C4                 0.93(4)  .      1_555  N
  H43       H41                1.53(6)  .      1_555  N
  H43       H42                1.53(6)  .      1_555  N
  H43       H44                1.53(6)  .      1_555  N
  H43       C5                3.25(10)  .      1_555  N
  H43       C6                 2.79(5)  .      1_555  N
  H43       C8                2.59(10)  .      3_655  N
  H43       C9                3.10(12)  .      2_556  N
  H44       C1                3.23(12)  .      1_555  N
  H44       C4                 0.93(4)  .      1_555  N
  H44       H41                1.53(6)  .      1_555  N
  H44       H42                1.53(6)  .      1_555  N
  H44       H43                1.53(6)  .      1_555  N
  H44       C5                 2.65(7)  .      2_555  N
  H44       C7                 2.92(9)  .      3_655  N
  H44       C8                2.84(14)  .      1_555  N
  C5        C1               3.310(29)  .      1_555  N
  C5        H11              3.268(30)  .      1_555  N
  C5        H12               2.77(16)  .      1_555  N
  C5        C3               3.839(29)  .      1_556  N
  C5        H32                2.97(6)  .      1_556  N
  C5        C4                 3.50(4)  .      1_555  N
  C5        C4                 3.50(4)  .      3_555  N
  C5        H42               2.88(10)  .      1_555  N
  C5        H43               3.25(10)  .      1_555  N
  C5        H44                2.65(7)  .      3_555  N
  C5        H51                0.93(4)  .      1_555  N
  C5        H52                0.93(4)  .      1_555  N
  C5        H53                0.93(4)  .      1_555  N
  C5        H54                0.93(4)  .      1_555  N
  C5        C6               3.665(35)  .      1_555  N
  C5        C6               3.606(34)  .      3_545  N
  C5        H62               3.22(11)  .      1_555  N
  C5        H62                2.98(9)  .      3_545  N
  C5        H63               3.25(11)  .      1_555  N
  C5        C7                 3.66(4)  .      1_555  N
  C5        C7               3.448(33)  .      2_556  N
  C5        C7               3.627(35)  .      3_555  N
  C5        H72                2.93(8)  .      1_555  N
  C5        H72               3.20(10)  .      2_556  N
  C5        H73               2.90(10)  .      2_556  N
  C5        H74                2.79(7)  .      3_555  N
  C5        C8                 3.78(4)  .      2_546  N
  C5        C8                 3.40(4)  .      3_555  N
  C5        H81                2.75(9)  .      3_555  N
  C5        H83               3.19(10)  .      3_555  N
  C5        H84               3.24(10)  .      2_546  N
  C5        C9                 3.10(4)  .      1_555  N
  C5        C9                 3.19(4)  .      2_556  N
  C5        H91               2.93(12)  .      1_555  N
  C5        H92               2.77(11)  .      1_555  N
  C5        H93               3.08(10)  .      1_555  N
  C5        H93               2.63(10)  .      2_556  N
  C5        H94               3.03(12)  .      2_556  N
  H51       C1                3.13(12)  .      1_555  N
  H51       C4                3.07(11)  .      1_555  N
  H51       C5                 0.93(4)  .      1_555  N
  H51       H52                1.53(6)  .      1_555  N
  H51       H53                1.53(6)  .      1_555  N
  H51       H54                1.53(6)  .      1_555  N
  H51       C6                 2.78(6)  .      1_555  N
  H51       C7                3.02(11)  .      2_556  N
  H51       C9                2.69(11)  .      2_556  N
  H52       C3                 3.11(8)  .      1_556  N
  H52       C5                 0.93(4)  .      1_555  N
  H52       H51                1.53(6)  .      1_555  N
  H52       H53                1.53(6)  .      1_555  N
  H52       H54                1.53(6)  .      1_555  N
  H52       C8                 2.88(6)  .      2_546  N
  H52       C9                2.84(12)  .      1_555  N
  H52       C9                2.88(11)  .      2_556  N
  H53       C1                3.25(10)  .      1_555  N
  H53       C4                 2.73(8)  .      3_555  N
  H53       C5                 0.93(4)  .      1_555  N
  H53       H51                1.53(6)  .      1_555  N
  H53       H52                1.53(6)  .      1_555  N
  H53       H54                1.53(6)  .      1_555  N
  H53       C7                3.04(10)  .      3_555  N
  H53       C8                 2.63(8)  .      3_555  N
  H53       C9                3.09(11)  .      1_555  N
  H54       C1                3.01(12)  .      1_555  N
  H54       C4                3.08(11)  .      1_555  N
  H54       C5                 0.93(4)  .      1_555  N
  H54       H51                1.53(6)  .      1_555  N
  H54       H52                1.53(6)  .      1_555  N
  H54       H53                1.53(6)  .      1_555  N
  H54       C6                3.06(10)  .      3_545  N
  H54       C7                 2.74(5)  .      1_555  N
  H54       C9                2.85(11)  .      1_555  N
  C6        C1                 3.48(4)  .      1_555  N
  C6        H12               2.91(11)  .      1_555  N
  C6        H12               3.25(14)  .      2_555  N
  C6        C2                 3.44(6)  .      1_555  N
  C6        H21                2.74(8)  .      1_555  N
  C6        C4               3.699(32)  .      1_555  N
  C6        C4               3.389(34)  .      2_556  N
  C6        C4                 3.84(4)  .      3_555  N
  C6        C4                 5.00(5)  .      3_655  N
  C6        H41               3.27(12)  .      2_556  N
  C6        H42               2.68(10)  .      2_556  N
  C6        H43                2.79(5)  .      1_555  N
  C6        C5               3.665(35)  .      1_555  N
  C6        C5               3.606(33)  .      2_556  N
  C6        H51                2.78(6)  .      1_555  N
  C6        H54               3.06(10)  .      2_556  N
  C6        C6                 3.49(5)  .      2_555  N
  C6        C6                 3.49(5)  .      3_555  N
  C6        H61                0.93(4)  .      1_555  N
  C6        H62                0.93(4)  .      1_555  N
  C6        H63                0.93(4)  .      1_555  N
  C6        H63               2.97(12)  .      2_555  N
  C6        H64                0.93(4)  .      1_555  N
  C6        H64               2.69(10)  .      3_555  N
  C6        C7               3.267(26)  .      2_556  N
  C6        H72               2.64(10)  .      2_556  N
  C6        C8                 3.79(4)  .      2_556  N
  C6        C8                 3.45(5)  .      3_655  N
  C6        H82               2.78(11)  .      3_655  N
  C6        C9                 3.75(4)  .      2_556  N
  C6        C9                 3.85(4)  .      3_656  N
  C6        H94                3.00(7)  .      3_656  N
  H61       C2                2.94(10)  .      1_555  N
  H61       C4                 2.51(6)  .      2_556  N
  H61       C6                 0.93(4)  .      1_555  N
  H61       H62                1.53(6)  .      1_555  N
  H61       H63                1.53(6)  .      1_555  N
  H61       H64                1.53(6)  .      1_555  N
  H61       C7                3.24(10)  .      2_556  N
  H61       C8                3.24(10)  .      2_556  N
  H62       C5                3.22(11)  .      1_555  N
  H62       C5                 2.98(9)  .      2_556  N
  H62       C6                 0.93(4)  .      1_555  N
  H62       H61                1.53(6)  .      1_555  N
  H62       H63                1.53(6)  .      1_555  N
  H62       H64                1.53(6)  .      1_555  N
  H62       C7                2.78(11)  .      2_556  N
  H62       C8                3.28(12)  .      3_655  N
  H62       C9                 2.85(6)  .      2_556  N
  H63       C1                 2.75(9)  .      1_555  N
  H63       C4                 3.01(8)  .      3_555  N
  H63       C5                3.25(11)  .      1_555  N
  H63       C6                 0.93(4)  .      1_555  N
  H63       C6                2.97(12)  .      3_555  N
  H63       H61                1.53(6)  .      1_555  N
  H63       H62                1.53(6)  .      1_555  N
  H63       H64                1.53(6)  .      1_555  N
  H63       C7                3.26(12)  .      2_556  N
  H64       C2                3.11(12)  .      1_555  N
  H64       C6                 0.93(4)  .      1_555  N
  H64       C6                2.69(10)  .      2_555  N
  H64       H61                1.53(6)  .      1_555  N
  H64       H62                1.53(6)  .      1_555  N
  H64       H63                1.53(6)  .      1_555  N
  H64       C8                2.80(12)  .      3_655  N
  C7        C1                 3.55(4)  .      1_555  N
  C7        H11                2.84(8)  .      1_555  N
  C7        C3                 3.55(8)  .      1_555  N
  C7        H32                2.85(6)  .      3_555  N
  C7        C4                 3.63(4)  .      1_555  N
  C7        C4                 3.61(4)  .      2_545  N
  C7        H42                2.84(8)  .      1_555  N
  C7        H44                2.92(9)  .      2_545  N
  C7        C5                 3.66(4)  .      1_555  N
  C7        C5                 3.63(4)  .      2_555  N
  C7        C5               3.448(34)  .      3_545  N
  C7        H51               3.02(11)  .      3_545  N
  C7        H53               3.04(10)  .      2_555  N
  C7        H54                2.74(5)  .      1_555  N
  C7        C6               3.267(25)  .      3_545  N
  C7        H61               3.24(10)  .      3_545  N
  C7        H62               2.78(11)  .      3_545  N
  C7        H63               3.26(12)  .      3_545  N
  C7        C7                 3.56(6)  .      2_555  N
  C7        C7                 3.56(6)  .      3_555  N
  C7        H71                0.93(4)  .      1_555  N
  C7        H71               2.85(11)  .      2_555  N
  C7        H71               2.78(10)  .      3_555  N
  C7        H72                0.93(4)  .      1_555  N
  C7        H73                0.93(4)  .      1_555  N
  C7        H74                0.93(4)  .      1_555  N
  C7        C8                 3.70(4)  .      1_555  N
  C7        C8                 3.87(5)  .      2_545  N
  C7        H81                3.00(7)  .      2_545  N
  C7        H83                2.83(7)  .      1_555  N
  C7        C9                 3.61(5)  .      1_555  N
  C7        C9                 3.35(5)  .      2_555  N
  C7        H92               2.76(12)  .      2_555  N
  C7        H93                2.72(7)  .      1_555  N
  C7        H93               3.13(13)  .      2_555  N
  H71       C3                2.92(11)  .      1_555  N
  H71       C7                 0.93(4)  .      1_555  N
  H71       C7                2.78(10)  .      2_555  N
  H71       C7                2.85(11)  .      3_555  N
  H71       H72                1.53(6)  .      1_555  N
  H71       H73                1.53(6)  .      1_555  N
  H71       H74                1.53(6)  .      1_555  N
  H72       C5                 2.93(8)  .      1_555  N
  H72       C5                3.20(10)  .      3_545  N
  H72       C6                2.64(10)  .      3_545  N
  H72       C7                 0.93(4)  .      1_555  N
  H72       H71                1.53(6)  .      1_555  N
  H72       H73                1.53(6)  .      1_555  N
  H72       H74                1.53(6)  .      1_555  N
  H72       C9                 2.85(9)  .      1_555  N
  H73       C4                 2.80(8)  .      2_545  N
  H73       C5                2.90(10)  .      3_545  N
  H73       C7                 0.93(4)  .      1_555  N
  H73       H71                1.53(6)  .      1_555  N
  H73       H72                1.53(6)  .      1_555  N
  H73       H74                1.53(6)  .      1_555  N
  H73       C8                 3.05(7)  .      2_545  N
  H73       C9                3.00(12)  .      2_555  N
  H74       C1                3.15(11)  .      1_555  N
  H74       C4                 2.93(9)  .      1_555  N
  H74       C5                 2.79(7)  .      2_555  N
  H74       C7                 0.93(4)  .      1_555  N
  H74       H71                1.53(6)  .      1_555  N
  H74       H72                1.53(6)  .      1_555  N
  H74       H73                1.53(6)  .      1_555  N
  H74       C8                3.05(10)  .      1_555  N
  H74       C9                3.11(11)  .      2_555  N
  C8        C2                 4.12(6)  .      1_544  N
  C8        C2                 4.63(4)  .      1_545  N
  C8        C3                 3.06(4)  .      1_655  N
  C8        H31              3.011(33)  .      1_655  N
  C8        H32               2.63(16)  .      2_655  N
  C8        H32               3.04(19)  .      3_655  N
  C8        C4                 3.15(4)  .      1_555  N
  C8        C4                 3.10(4)  .      2_545  N
  C8        H41               2.94(12)  .      1_555  N
  C8        H41               2.88(12)  .      2_545  N
  C8        H42               3.14(11)  .      1_555  N
  C8        H43               2.59(10)  .      2_545  N
  C8        H44               2.84(14)  .      1_555  N
  C8        C5                 3.40(4)  .      2_555  N
  C8        C5                 3.78(4)  .      3_645  N
  C8        H52                2.88(6)  .      3_645  N
  C8        H53                2.63(8)  .      2_555  N
  C8        C6                 3.45(5)  .      2_545  N
  C8        C6                 3.79(4)  .      3_545  N
  C8        H61               3.24(10)  .      3_545  N
  C8        H62               3.28(12)  .      2_545  N
  C8        H64               2.80(12)  .      2_545  N
  C8        C7                 3.70(4)  .      1_555  N
  C8        C7                 3.87(5)  .      3_655  N
  C8        H73                3.05(7)  .      3_655  N
  C8        H74               3.05(10)  .      1_555  N
  C8        H81                0.93(4)  .      1_555  N
  C8        H82                0.93(4)  .      1_555  N
  C8        H83                0.93(4)  .      1_555  N
  C8        H84                0.93(4)  .      1_555  N
  C8        C9               3.307(23)  .      1_655  N
  C8        C9                 3.68(4)  .      2_555  N
  C8        C9                 3.85(4)  .      3_645  N
  C8        H91                2.92(5)  .      3_645  N
  C8        H92                2.82(7)  .      2_555  N
  C8        H94                2.67(9)  .      1_655  N
  H81       C3                2.60(13)  .      1_655  N
  H81       C4                2.91(14)  .      1_555  N
  H81       C5                 2.75(9)  .      2_555  N
  H81       C7                 3.00(7)  .      3_655  N
  H81       C8                 0.93(4)  .      1_555  N
  H81       H82                1.53(6)  .      1_555  N
  H81       H83                1.53(6)  .      1_555  N
  H81       H84                1.53(6)  .      1_555  N
  H81       C9                3.17(11)  .      1_655  N
  H82       C4                2.85(13)  .      1_555  N
  H82       C6                2.78(11)  .      2_545  N
  H82       C8                 0.93(4)  .      1_555  N
  H82       H81                1.53(6)  .      1_555  N
  H82       H83                1.53(6)  .      1_555  N
  H82       H84                1.53(6)  .      1_555  N
  H82       C9                2.70(11)  .      1_655  N
  H83       C4                3.15(11)  .      1_555  N
  H83       C4                 2.55(9)  .      2_545  N
  H83       C5                3.19(10)  .      2_555  N
  H83       C7                 2.83(7)  .      1_555  N
  H83       C8                 0.93(4)  .      1_555  N
  H83       H81                1.53(6)  .      1_555  N
  H83       H82                1.53(6)  .      1_555  N
  H83       H84                1.53(6)  .      1_555  N
  H83       C9                3.08(12)  .      2_555  N
  H84       C3                2.67(13)  .      1_655  N
  H84       C4                2.91(12)  .      2_545  N
  H84       C5                3.24(10)  .      3_645  N
  H84       C8                 0.93(4)  .      1_555  N
  H84       H81                1.53(6)  .      1_555  N
  H84       H82                1.53(6)  .      1_555  N
  H84       H83                1.53(6)  .      1_555  N
  H84       C9                 2.97(7)  .      3_645  N
  C9        C2                 3.21(4)  .      1_445  N
  C9        H22               3.25(20)  .      1_445  N
  C9        H22               2.46(14)  .      3_445  N
  C9        C3                 4.48(5)  .      1_555  N
  C9        C3                 4.21(6)  .      1_556  N
  C9        C4                 3.60(5)  .      1_455  N
  C9        C4                 3.52(4)  .      3_545  N
  C9        H41                2.78(8)  .      1_455  N
  C9        H43               3.10(12)  .      3_545  N
  C9        C5                 3.10(4)  .      1_555  N
  C9        C5                 3.19(4)  .      3_545  N
  C9        H51               2.69(11)  .      3_545  N
  C9        H52               2.84(12)  .      1_555  N
  C9        H52               2.88(11)  .      3_545  N
  C9        H53               3.09(11)  .      1_555  N
  C9        H54               2.85(11)  .      1_555  N
  C9        C6                 3.85(4)  .      2_445  N
  C9        C6                 3.75(4)  .      3_545  N
  C9        H62                2.85(6)  .      3_545  N
  C9        C7                 3.61(5)  .      1_555  N
  C9        C7                 3.35(5)  .      3_555  N
  C9        H72                2.85(9)  .      1_555  N
  C9        H73               3.00(12)  .      3_555  N
  C9        H74               3.11(11)  .      3_555  N
  C9        C8               3.307(23)  .      1_455  N
  C9        C8                 3.85(4)  .      2_546  N
  C9        C8                 3.68(4)  .      3_555  N
  C9        H81               3.17(11)  .      1_455  N
  C9        H82               2.70(11)  .      1_455  N
  C9        H83               3.08(12)  .      3_555  N
  C9        H84                2.97(7)  .      2_546  N
  C9        H91                0.93(4)  .      1_555  N
  C9        H92                0.93(4)  .      1_555  N
  C9        H93                0.93(4)  .      1_555  N
  C9        H94                0.93(4)  .      1_555  N
  H91       C2                2.99(13)  .      1_445  N
  H91       C4                2.91(10)  .      3_545  N
  H91       C5                2.93(12)  .      1_555  N
  H91       C8                 2.92(5)  .      2_546  N
  H91       C9                 0.93(4)  .      1_555  N
  H91       H92                1.53(6)  .      1_555  N
  H91       H93                1.53(6)  .      1_555  N
  H91       H94                1.53(6)  .      1_555  N
  H92       C4                3.01(10)  .      1_455  N
  H92       C5                2.77(11)  .      1_555  N
  H92       C7                2.76(12)  .      3_555  N
  H92       C8                 2.82(7)  .      3_555  N
  H92       C9                 0.93(4)  .      1_555  N
  H92       H91                1.53(6)  .      1_555  N
  H92       H93                1.53(6)  .      1_555  N
  H92       H94                1.53(6)  .      1_555  N
  H93       C5                3.08(10)  .      1_555  N
  H93       C5                2.63(10)  .      3_545  N
  H93       C7                 2.72(7)  .      1_555  N
  H93       C7                3.13(13)  .      3_555  N
  H93       C9                 0.93(4)  .      1_555  N
  H93       H91                1.53(6)  .      1_555  N
  H93       H92                1.53(6)  .      1_555  N
  H93       H94                1.53(6)  .      1_555  N
  H94       C2                2.81(11)  .      1_445  N
  H94       C5                3.03(12)  .      3_545  N
  H94       C6                 3.00(7)  .      2_445  N
  H94       C8                 2.67(9)  .      1_455  N
  H94       C9                 0.93(4)  .      1_555  N
  H94       H91                1.53(6)  .      1_555  N
  H94       H92                1.53(6)  .      1_555  N
  H94       H93                1.53(6)  .      1_555  N

loop_
      _geom_angle_atom_site_label_1
      _geom_angle_atom_site_label_2
      _geom_angle_atom_site_label_3
      _geom_angle
      _geom_angle_site_symmetry_1
      _geom_angle_site_symmetry_2
      _geom_angle_site_symmetry_3
      _geom_angle_publ_flag
   ?   ?   ?   ?   ?   ?   ?   ?


